*******************************************************
* Taiwan Semiconductor
* 1N4148WS
* 200mW High Speed SMD Switching Diode
* Date: 2022-10-20
*******************************************************
.MODEL 1N4148WS D
+ IS=47.732E-9
+ N=2.2271
+ RS=1.2957
+ IKF=.78954
+ CJO=613.92E-15
+ M=.11682
+ VJ=.53003
+ ISR=10.010E-21
+ NR=4.9950
+ BV=100
+ IBV=5E-06
+ TT=25.949E-9
*******************************************************